@<TRIPOS>MOLECULE
17/3lzv_heta.pdb
 75 78 0 0 0
SMALL
GASTEIGER

@<TRIPOS>ATOM
      1  N1        14.3560   -5.8210   12.7960 N.pl3 200  017200     -0.3580
      2  C2        15.2880   -5.3030   13.6250 C.ar  200  017200      0.0247
      3  C3        16.3750   -6.0690   14.0710 C.ar  200  017200     -0.0392
      4  C4        17.2900   -5.4760   14.9380 C.ar  200  017200     -0.0336
      5  C5        17.1630   -4.1500   15.3640 C.ar  200  017200      0.1056
      6  C6        16.0880   -3.4050   14.8700 C.ar  200  017200     -0.0336
      7  C7        15.1420   -3.9780   14.0300 C.ar  200  017200     -0.0392
      8  S8        18.2630   -3.4380   16.3120 S.O2  200  017200      0.0609
      9  O9        18.8370   -4.4120   17.2170 O.2   200  017200     -0.1528
     10  O10       17.6670   -2.3190   17.0100 O.2   200  017200     -0.1528
     11  N11       19.4670   -2.8050   15.4090 N.3   200  017200     -0.1738
     12  C12       20.2120   -3.7770   14.5680 C.3   200  017200      0.0229
     13  C13       21.7100   -3.4530   14.5170 C.3   200  017200     -0.0323
     14  C14       22.3870   -3.4120   15.8840 C.3   200  017200     -0.0615
     15  C15       22.4890   -4.3750   13.5840 C.3   200  017200     -0.0615
     16  C16       19.1120   -1.5630   14.6860 C.3   200  017200      0.0483
     17  C17       19.9620   -0.4530   15.3120 C.3   200  017200      0.0882
     18  O18       19.9200    0.7100   14.4780 O.3   200  017200     -0.3886
     19  C19       19.6230   -0.0510   16.7470 C.3   200  017200      0.0573
     20  N20       20.7640    0.7460   17.1420 N.am  200  017200     -0.2754
     21  C21       21.6150    0.5050   18.1280 C.2   200  017200      0.4009
     22  O22       21.6090   -0.4810   18.8310 O.2   200  017200     -0.2265
     23  O23       22.6180    1.5360   18.3430 O.3   200  017200     -0.4443
     24  C24       23.3360    1.4990   19.5770 C.3   200  017200      0.1354
     25  C25       24.7050    2.0700   19.2640 C.3   200  017200      0.0881
     26  O26       24.5400    3.4850   19.3230 O.3   200  017200     -0.3473
     27  C27       23.6010    3.7520   20.3580 C.3   200  017200      0.1656
     28  O28       22.6690    4.7420   19.9460 O.3   200  017200     -0.3509
     29  C29       21.3920    4.1340   19.7290 C.3   200  017200      0.0512
     30  C30       21.3630    2.8820   20.5790 C.3   200  017200     -0.0184
     31  C31       22.8360    2.4690   20.6270 C.3   200  017200      0.0515
     32  C32       18.2850    0.7070   16.9130 C.3   200  017200     -0.0066
     33  C33       18.1700    2.5020   18.6800 C.ar  200  017200     -0.0585
     34  C34       18.0120    2.9600   19.9850 C.ar  200  017200     -0.0615
     35  C35       17.7160    2.0550   20.9900 C.ar  200  017200     -0.0617
     36  C36       17.5820    0.7040   20.6610 C.ar  200  017200     -0.0615
     37  C37       17.7320    0.2550   19.3490 C.ar  200  017200     -0.0585
     38  C38       18.0470    1.1590   18.3410 C.ar  200  017200     -0.0455
     39 H          13.6011   -5.2651   12.4954 H     200  017200      0.1423
     40 H          14.4315   -6.7545   12.4924 H     200  017200      0.1423
     41 H          16.4939   -7.0473   13.7646 H     200  017200      0.0636
     42 H          18.0888   -6.0342   15.2775 H     200  017200      0.0638
     43 H          15.9958   -2.4117   15.1342 H     200  017200      0.0638
     44 H          14.3335   -3.4240   13.7068 H     200  017200      0.0636
     45 H          20.0832   -4.7580   14.9755 H     200  017200      0.0446
     46 H          19.8249   -3.7211   13.5720 H     200  017200      0.0446
     47 H          21.7384   -2.4607   14.1176 H     200  017200      0.0308
     48 H          22.3776   -4.3908   16.3162 H     200  017200      0.0233
     49 H          21.8596   -2.7349   16.5230 H     200  017200      0.0233
     50 H          23.3984   -3.0815   15.7713 H     200  017200      0.0233
     51 H          22.4697   -5.3726   13.9705 H     200  017200      0.0233
     52 H          23.5025   -4.0388   13.5148 H     200  017200      0.0233
     53 H          22.0412   -4.3602   12.6123 H     200  017200      0.0233
     54 H          19.3374   -1.6615   13.6447 H     200  017200      0.0470
     55 H          18.0667   -1.3483   14.7652 H     200  017200      0.0470
     56 H          20.9414   -0.8791   15.3755 H     200  017200      0.0625
     57 H          19.0147    1.0575   14.4531 H     200  017200      0.2099
     58 H          19.4624   -0.9103   17.3640 H     200  017200      0.0528
     59 H          20.9269    1.5626   16.6168 H     200  017200      0.1524
     60 H          23.2685    0.4948   19.9401 H     200  017200      0.0762
     61 H          25.4221    1.7450   19.9886 H     200  017200      0.0598
     62 H          25.0648    1.7479   18.3092 H     200  017200      0.0598
     63 H          24.1185    4.0999   21.2275 H     200  017200      0.0913
     64 H          21.2730    3.8824   18.6958 H     200  017200      0.0561
     65 H          20.5965    4.7994   19.9924 H     200  017200      0.0561
     66 H          20.7642    2.1211   20.1237 H     200  017200      0.0293
     67 H          20.9355    3.0378   21.5474 H     200  017200      0.0293
     68 H          22.9695    1.9746   21.5665 H     200  017200      0.0387
     69 H          17.4851    0.0594   16.6202 H     200  017200      0.0332
     70 H          18.3283    1.5816   16.2980 H     200  017200      0.0332
     71 H          18.3864    3.1844   17.9366 H     200  017200      0.0620
     72 H          18.1145    3.9639   20.2011 H     200  017200      0.0618
     73 H          17.5965    2.3727   21.9646 H     200  017200      0.0618
     74 H          17.3671    0.0226   21.4057 H     200  017200      0.0618
     75 H          17.6095   -0.7454   19.1272 H     200  017200      0.0620
@<TRIPOS>BOND
     1     1     2    1
     2    15    13    1
     3     2     7   ar
     4     2     3   ar
     5     7     6   ar
     6     3     4   ar
     7    18    17    1
     8    13    12    1
     9    13    14    1
    10    12    11    1
    11    16    17    1
    12    16    11    1
    13     6     5   ar
    14     4     5   ar
    15    17    19    1
    16     5     8    1
    17    11     8    1
    18     8    10    2
    19     8     9    2
    20    19    32    1
    21    19    20    1
    22    32    38    1
    23    20    21   am
    24    21    23    1
    25    21    22    2
    26    38    33   ar
    27    38    37   ar
    28    23    24    1
    29    33    34   ar
    30    25    26    1
    31    25    24    1
    32    26    27    1
    33    37    36   ar
    34    24    31    1
    35    29    28    1
    36    29    30    1
    37    28    27    1
    38    34    35   ar
    39    27    31    1
    40    30    31    1
    41    36    35   ar
    42     1    39    1
    43     1    40    1
    44     3    41    1
    45     4    42    1
    46     6    43    1
    47     7    44    1
    48    12    45    1
    49    12    46    1
    50    13    47    1
    51    14    48    1
    52    14    49    1
    53    14    50    1
    54    15    51    1
    55    15    52    1
    56    15    53    1
    57    16    54    1
    58    16    55    1
    59    17    56    1
    60    18    57    1
    61    19    58    1
    62    20    59    1
    63    24    60    1
    64    25    61    1
    65    25    62    1
    66    27    63    1
    67    29    64    1
    68    29    65    1
    69    30    66    1
    70    30    67    1
    71    31    68    1
    72    32    69    1
    73    32    70    1
    74    33    71    1
    75    34    72    1
    76    35    73    1
    77    36    74    1
    78    37    75    1
