17/3lzv_heta.pdb
 OpenBabel12052106473D

 38 41  0  0  1  0  0  0  0  0999 V2000
   14.3560   -5.8210   12.7960 N   0  0  0  0  0  0  0  0  0  0  0  0
   15.2880   -5.3030   13.6250 C   0  0  0  0  0  0  0  0  0  0  0  0
   16.3750   -6.0690   14.0710 C   0  0  0  0  0  0  0  0  0  0  0  0
   17.2900   -5.4760   14.9380 C   0  0  0  0  0  0  0  0  0  0  0  0
   17.1630   -4.1500   15.3640 C   0  0  0  0  0  0  0  0  0  0  0  0
   16.0880   -3.4050   14.8700 C   0  0  0  0  0  0  0  0  0  0  0  0
   15.1420   -3.9780   14.0300 C   0  0  0  0  0  0  0  0  0  0  0  0
   18.2630   -3.4380   16.3120 S   0  0  0  0  0  0  0  0  0  0  0  0
   18.8370   -4.4120   17.2170 O   0  0  0  0  0  0  0  0  0  0  0  0
   17.6670   -2.3190   17.0100 O   0  0  0  0  0  0  0  0  0  0  0  0
   19.4670   -2.8050   15.4090 N   0  0  0  0  0  0  0  0  0  0  0  0
   20.2120   -3.7770   14.5680 C   0  0  0  0  0  0  0  0  0  0  0  0
   21.7100   -3.4530   14.5170 C   0  0  0  0  0  0  0  0  0  0  0  0
   22.3870   -3.4120   15.8840 C   0  0  0  0  0  0  0  0  0  0  0  0
   22.4890   -4.3750   13.5840 C   0  0  0  0  0  0  0  0  0  0  0  0
   19.1120   -1.5630   14.6860 C   0  0  0  0  0  0  0  0  0  0  0  0
   19.9620   -0.4530   15.3120 C   0  0  1  0  0  0  0  0  0  0  0  0
   19.9200    0.7100   14.4780 O   0  0  0  0  0  0  0  0  0  0  0  0
   19.6230   -0.0510   16.7470 C   0  0  1  0  0  0  0  0  0  0  0  0
   20.7640    0.7460   17.1420 N   0  0  0  0  0  0  0  0  0  0  0  0
   21.6150    0.5050   18.1280 C   0  0  0  0  0  0  0  0  0  0  0  0
   21.6090   -0.4810   18.8310 O   0  0  0  0  0  0  0  0  0  0  0  0
   22.6180    1.5360   18.3430 O   0  0  0  0  0  0  0  0  0  0  0  0
   23.3360    1.4990   19.5770 C   0  0  1  0  0  0  0  0  0  0  0  0
   24.7050    2.0700   19.2640 C   0  0  0  0  0  0  0  0  0  0  0  0
   24.5400    3.4850   19.3230 O   0  0  0  0  0  0  0  0  0  0  0  0
   23.6010    3.7520   20.3580 C   0  0  1  0  0  0  0  0  0  0  0  0
   22.6690    4.7420   19.9460 O   0  0  0  0  0  0  0  0  0  0  0  0
   21.3920    4.1340   19.7290 C   0  0  0  0  0  0  0  0  0  0  0  0
   21.3630    2.8820   20.5790 C   0  0  0  0  0  0  0  0  0  0  0  0
   22.8360    2.4690   20.6270 C   0  0  1  0  0  0  0  0  0  0  0  0
   18.2850    0.7070   16.9130 C   0  0  0  0  0  0  0  0  0  0  0  0
   18.1700    2.5020   18.6800 C   0  0  0  0  0  0  0  0  0  0  0  0
   18.0120    2.9600   19.9850 C   0  0  0  0  0  0  0  0  0  0  0  0
   17.7160    2.0550   20.9900 C   0  0  0  0  0  0  0  0  0  0  0  0
   17.5820    0.7040   20.6610 C   0  0  0  0  0  0  0  0  0  0  0  0
   17.7320    0.2550   19.3490 C   0  0  0  0  0  0  0  0  0  0  0  0
   18.0470    1.1590   18.3410 C   0  0  0  0  0  0  0  0  0  0  0  0
  1  2  1  0  0  0  0
  2  7  2  0  0  0  0
  2  3  1  0  0  0  0
  3  4  2  0  0  0  0
  4  5  1  0  0  0  0
  5  8  1  0  0  0  0
  6  5  2  0  0  0  0
  7  6  1  0  0  0  0
  8 10  2  0  0  0  0
  8  9  2  0  0  0  0
 11  8  1  0  0  0  0
 12 11  1  0  0  0  0
 13 12  1  0  0  0  0
 13 14  1  0  0  0  0
 15 13  1  0  0  0  0
 16 17  1  0  0  0  0
 16 11  1  0  0  0  0
 17 18  1  6  0  0  0
 17 19  1  0  0  0  0
 19 32  1  6  0  0  0
 19 20  1  0  0  0  0
 20 21  1  0  0  0  0
 21 23  1  0  0  0  0
 21 22  2  0  0  0  0
 24 23  1  6  0  0  0
 24 31  1  0  0  0  0
 25 26  1  0  0  0  0
 25 24  1  0  0  0  0
 27 26  1  6  0  0  0
 27 31  1  0  0  0  0
 28 27  1  0  0  0  0
 29 28  1  0  0  0  0
 29 30  1  0  0  0  0
 31 30  1  6  0  0  0
 32 38  1  0  0  0  0
 33 34  1  0  0  0  0
 34 35  2  0  0  0  0
 36 35  1  0  0  0  0
 37 36  2  0  0  0  0
 38 33  2  0  0  0  0
 38 37  1  0  0  0  0
M  END
