017
  Mrv15b2312052106482D          

 38 41  0  0  0  0            999 V2000
   -0.3643    4.3886    0.0000 N   0  0  0  0  0  0  0  0  0  0  0  0
    0.0482    3.6741    0.0000 C   0  0  0  0  0  0  0  0  0  0  0  0
    0.8732    3.6741    0.0000 C   0  0  0  0  0  0  0  0  0  0  0  0
    1.2857    2.9597    0.0000 C   0  0  0  0  0  0  0  0  0  0  0  0
    0.8732    2.2452    0.0000 C   0  0  0  0  0  0  0  0  0  0  0  0
    0.0482    2.2452    0.0000 C   0  0  0  0  0  0  0  0  0  0  0  0
   -0.3643    2.9597    0.0000 C   0  0  0  0  0  0  0  0  0  0  0  0
    1.2857    1.5307    0.0000 S   0  0  0  0  0  0  0  0  0  0  0  0
    2.0002    1.9432    0.0000 O   0  0  0  0  0  0  0  0  0  0  0  0
    0.5713    1.1182    0.0000 O   0  0  0  0  0  0  0  0  0  0  0  0
    1.6982    0.8163    0.0000 N   0  0  0  0  0  0  0  0  0  0  0  0
    2.5232    0.8163    0.0000 C   0  0  0  0  0  0  0  0  0  0  0  0
    2.9357    1.5307    0.0000 C   0  0  0  0  0  0  0  0  0  0  0  0
    2.5232    2.2452    0.0000 C   0  0  0  0  0  0  0  0  0  0  0  0
    3.7607    1.5307    0.0000 C   0  0  0  0  0  0  0  0  0  0  0  0
    1.2857    0.1018    0.0000 C   0  0  0  0  0  0  0  0  0  0  0  0
    0.4607    0.1018    0.0000 C   0  0  1  0  0  0  0  0  0  0  0  0
    0.0482    0.8163    0.0000 O   0  0  0  0  0  0  0  0  0  0  0  0
    0.0482   -0.6127    0.0000 C   0  0  1  0  0  0  0  0  0  0  0  0
   -0.7768   -0.6127    0.0000 N   0  0  0  0  0  0  0  0  0  0  0  0
   -1.1893   -1.3272    0.0000 C   0  0  0  0  0  0  0  0  0  0  0  0
   -0.7768   -2.0416    0.0000 O   0  0  0  0  0  0  0  0  0  0  0  0
   -2.0143   -1.3272    0.0000 O   0  0  0  0  0  0  0  0  0  0  0  0
   -2.4268   -2.0416    0.0000 C   0  0  1  0  0  0  0  0  0  0  0  0
   -2.0912   -2.7953    0.0000 C   0  0  0  0  0  0  0  0  0  0  0  0
   -2.7043   -3.3473    0.0000 O   0  0  0  0  0  0  0  0  0  0  0  0
   -3.4188   -2.9348    0.0000 C   0  0  1  0  0  0  0  0  0  0  0  0
   -4.2393   -3.0211    0.0000 O   0  0  0  0  0  0  0  0  0  0  0  0
   -4.5748   -2.2674    0.0000 C   0  0  0  0  0  0  0  0  0  0  0  0
   -3.9617   -1.7154    0.0000 C   0  0  0  0  0  0  0  0  0  0  0  0
   -3.2472   -2.1279    0.0000 C   0  0  1  0  0  0  0  0  0  0  0  0
    0.4607   -1.3272    0.0000 C   0  0  0  0  0  0  0  0  0  0  0  0
    1.6982   -0.6127    0.0000 C   0  0  0  0  0  0  0  0  0  0  0  0
    2.5232   -0.6127    0.0000 C   0  0  0  0  0  0  0  0  0  0  0  0
    2.9357   -1.3272    0.0000 C   0  0  0  0  0  0  0  0  0  0  0  0
    2.5232   -2.0416    0.0000 C   0  0  0  0  0  0  0  0  0  0  0  0
    1.6982   -2.0416    0.0000 C   0  0  0  0  0  0  0  0  0  0  0  0
    1.2857   -1.3272    0.0000 C   0  0  0  0  0  0  0  0  0  0  0  0
  1  2  1  0  0  0  0
  2  3  4  0  0  0  0
  2  7  4  0  0  0  0
  3  4  4  0  0  0  0
  4  5  4  0  0  0  0
  5  6  4  0  0  0  0
  5  8  1  0  0  0  0
  6  7  4  0  0  0  0
  8  9  2  0  0  0  0
  8 10  2  0  0  0  0
  8 11  1  0  0  0  0
 11 12  1  0  0  0  0
 11 16  1  0  0  0  0
 12 13  1  0  0  0  0
 13 14  1  0  0  0  0
 13 15  1  0  0  0  0
 16 17  1  0  0  0  0
 17 18  1  6  0  0  0
 17 19  1  0  0  0  0
 19 20  1  6  0  0  0
 19 32  1  0  0  0  0
 20 21  1  0  0  0  0
 21 22  2  0  0  0  0
 21 23  1  0  0  0  0
 24 23  1  1  0  0  0
 24 25  1  0  0  0  0
 24 31  1  0  0  0  0
 25 26  1  0  0  0  0
 27 26  1  1  0  0  0
 27 28  1  0  0  0  0
 27 31  1  0  0  0  0
 28 29  1  0  0  0  0
 29 30  1  0  0  0  0
 31 30  1  1  0  0  0
 32 38  1  0  0  0  0
 33 34  4  0  0  0  0
 33 38  4  0  0  0  0
 34 35  4  0  0  0  0
 35 36  4  0  0  0  0
 36 37  4  0  0  0  0
 37 38  4  0  0  0  0
M  END
