017
  CCTOOLS-0529200952

 75 78  0  0  1  0  0  0  0  0999 V2000
   -2.2660    5.7520    0.3740 N   0  0  0  0  0
   -2.7610    4.4910    0.0360 C   0  0  0  0  0
   -2.0680    3.6880   -0.8610 C   0  0  0  0  0
   -2.5600    2.4410   -1.1920 C   0  0  0  0  0
   -3.7420    1.9920   -0.6320 C   0  0  0  0  0
   -4.4340    2.7880    0.2620 C   0  0  0  0  0
   -3.9450    4.0340    0.6010 C   0  0  0  0  0
   -4.3670    0.4000   -1.0580 S   0  0  0  0  0
   -5.7650    0.4380   -0.8090 O   0  0  0  0  0
   -3.8120    0.0770   -2.3260 O   0  0  0  0  0
   -3.7290   -0.6820    0.0210 N   0  0  0  0  0
   -4.4390   -0.9770    1.2680 C   0  0  0  0  0
   -5.3310   -2.2050    1.0690 C   0  0  0  0  0
   -4.4570   -3.4330    0.8080 C   0  0  0  0  0
   -6.1710   -2.4340    2.3270 C   0  0  0  0  0
   -2.4560   -1.3440   -0.2710 C   0  0  0  0  0
   -1.3120   -0.5560    0.3710 C   0  0  0  0  0
   -1.4440   -0.6000    1.7930 O   0  0  0  0  0
    0.0260   -1.1750   -0.0370 C   0  0  0  0  0
    1.1230   -0.3520    0.4790 N   0  0  0  0  0
    2.3250   -0.3720   -0.1300 C   0  0  0  0  0
    2.4990   -1.0730   -1.1070 O   0  0  0  0  0
    3.3320    0.3840    0.3450 O   0  0  0  0  0
    4.5990    0.3130   -0.3610 C   0  0  0  0  0
    4.6670    1.3970   -1.4520 C   0  0  0  0  0
    5.7200    2.3020   -1.0920 O   0  0  0  0  0
    6.6610    1.5840   -0.2710 C   0  0  0  0  0
    7.2510    2.4990    0.6630 O   0  0  0  0  0
    6.4570    2.5820    1.8510 C   0  0  0  0  0
    5.2610    1.6220    1.6810 C   0  0  0  0  0
    5.7660    0.6420    0.5930 C   0  0  0  0  0
    0.1320   -2.5880    0.5420 C   0  0  0  0  0
    2.5710   -3.1120    0.7520 C   0  0  0  0  0
    3.7270   -3.7130    0.2920 C   0  0  0  0  0
    3.7060   -4.4440   -0.8810 C   0  0  0  0  0
    2.5290   -4.5760   -1.5930 C   0  0  0  0  0
    1.3720   -3.9740   -1.1320 C   0  0  0  0  0
    1.3930   -3.2430    0.0400 C   0  0  0  0  0
   -1.4370    6.0690   -0.0180 H   0  0  0  0  0
   -2.7530    6.3140    0.9980 H   0  0  0  0  0
   -1.1450    4.0390   -1.2990 H   0  0  0  0  0
   -2.0220    1.8170   -1.8900 H   0  0  0  0  0
   -5.3570    2.4340    0.6970 H   0  0  0  0  0
   -4.4840    4.6540    1.3030 H   0  0  0  0  0
   -3.7160   -1.1780    2.0590 H   0  0  0  0  0
   -5.0550   -0.1220    1.5470 H   0  0  0  0  0
   -5.9910   -2.0400    0.2170 H   0  0  0  0  0
   -3.9590   -3.3260   -0.1560 H   0  0  0  0  0
   -3.7080   -3.5200    1.5950 H   0  0  0  0  0
   -5.0810   -4.3270    0.7980 H   0  0  0  0  0
   -6.7930   -1.5590    2.5130 H   0  0  0  0  0
   -6.8060   -3.3090    2.1850 H   0  0  0  0  0
   -5.5110   -2.5990    3.1790 H   0  0  0  0  0
   -2.4710   -2.3560    0.1330 H   0  0  0  0  0
   -2.3070   -1.3860   -1.3500 H   0  0  0  0  0
   -1.3510    0.4800    0.0350 H   0  0  0  0  0
   -1.4180   -1.4930    2.1630 H   0  0  0  0  0
    0.0880   -1.2230   -1.1240 H   0  0  0  0  0
    0.9830    0.2070    1.2600 H   0  0  0  0  0
    4.7330   -0.6760   -0.8000 H   0  0  0  0  0
    4.8860    0.9390   -2.4160 H   0  0  0  0  0
    3.7190    1.9330   -1.5010 H   0  0  0  0  0
    7.4060    1.0490   -0.8590 H   0  0  0  0  0
    7.0510    2.2830    2.7140 H   0  0  0  0  0
    6.0960    3.6010    1.9850 H   0  0  0  0  0
    5.0540    1.0930    2.6120 H   0  0  0  0  0
    4.3780    2.1610    1.3370 H   0  0  0  0  0
    6.2820   -0.2380    0.9770 H   0  0  0  0  0
    0.1600   -2.5330    1.6300 H   0  0  0  0  0
   -0.7320   -3.1740    0.2290 H   0  0  0  0  0
    2.5860   -2.5440    1.6710 H   0  0  0  0  0
    4.6480   -3.6100    0.8480 H   0  0  0  0  0
    4.6100   -4.9130   -1.2410 H   0  0  0  0  0
    2.5130   -5.1460   -2.5090 H   0  0  0  0  0
    0.4520   -4.0770   -1.6890 H   0  0  0  0  0
  1  2  1  0  0  0
  1 39  1  0  0  0
  1 40  1  0  0  0
  2  3  2  0  0  0
  2  7  1  0  0  0
  3  4  1  0  0  0
  3 41  1  0  0  0
  4  5  2  0  0  0
  4 42  1  0  0  0
  5  6  1  0  0  0
  5  8  1  0  0  0
  6  7  2  0  0  0
  6 43  1  0  0  0
  7 44  1  0  0  0
  8  9  2  0  0  0
  8 10  2  0  0  0
  8 11  1  0  0  0
 11 12  1  0  0  0
 11 16  1  0  0  0
 12 13  1  0  0  0
 12 45  1  0  0  0
 12 46  1  0  0  0
 13 14  1  0  0  0
 13 15  1  0  0  0
 13 47  1  0  0  0
 14 48  1  0  0  0
 14 49  1  0  0  0
 14 50  1  0  0  0
 15 51  1  0  0  0
 15 52  1  0  0  0
 15 53  1  0  0  0
 16 17  1  0  0  0
 16 54  1  0  0  0
 16 55  1  0  0  0
 17 18  1  0  0  0
 17 19  1  0  0  0
 17 56  1  0  0  0
 18 57  1  0  0  0
 19 20  1  0  0  0
 19 32  1  0  0  0
 19 58  1  0  0  0
 20 21  1  0  0  0
 20 59  1  0  0  0
 21 22  2  0  0  0
 21 23  1  0  0  0
 23 24  1  0  0  0
 24 25  1  0  0  0
 24 31  1  0  0  0
 24 60  1  0  0  0
 25 26  1  0  0  0
 25 61  1  0  0  0
 25 62  1  0  0  0
 26 27  1  0  0  0
 27 28  1  0  0  0
 27 31  1  0  0  0
 27 63  1  0  0  0
 28 29  1  0  0  0
 29 30  1  0  0  0
 29 64  1  0  0  0
 29 65  1  0  0  0
 30 31  1  0  0  0
 30 66  1  0  0  0
 30 67  1  0  0  0
 31 68  1  0  0  0
 32 38  1  0  0  0
 32 69  1  0  0  0
 32 70  1  0  0  0
 33 34  2  0  0  0
 33 38  1  0  0  0
 33 71  1  0  0  0
 34 35  1  0  0  0
 34 72  1  0  0  0
 35 36  2  0  0  0
 35 73  1  0  0  0
 36 37  1  0  0  0
 36 74  1  0  0  0
 37 38  2  0  0  0
 37 75  1  0  0  0
M  END
$$$$
