@<TRIPOS>MOLECULE
017
 75 78 0 0 0
SMALL
GASTEIGER

@<TRIPOS>ATOM
      1 N          -2.2660    5.7520    0.3740 N.pl3   1  UNL1       -0.3580
      2 C          -2.7610    4.4910    0.0360 C.ar    1  UNL1        0.0247
      3 C          -2.0680    3.6880   -0.8610 C.ar    1  UNL1       -0.0392
      4 C          -2.5600    2.4410   -1.1920 C.ar    1  UNL1       -0.0336
      5 C          -3.7420    1.9920   -0.6320 C.ar    1  UNL1        0.1056
      6 C          -4.4340    2.7880    0.2620 C.ar    1  UNL1       -0.0336
      7 C          -3.9450    4.0340    0.6010 C.ar    1  UNL1       -0.0392
      8 S          -4.3670    0.4000   -1.0580 S.O2    1  UNL1        0.0609
      9 O          -5.7650    0.4380   -0.8090 O.2     1  UNL1       -0.1528
     10 O          -3.8120    0.0770   -2.3260 O.2     1  UNL1       -0.1528
     11 N          -3.7290   -0.6820    0.0210 N.3     1  UNL1       -0.1738
     12 C          -4.4390   -0.9770    1.2680 C.3     1  UNL1        0.0229
     13 C          -5.3310   -2.2050    1.0690 C.3     1  UNL1       -0.0323
     14 C          -4.4570   -3.4330    0.8080 C.3     1  UNL1       -0.0615
     15 C          -6.1710   -2.4340    2.3270 C.3     1  UNL1       -0.0615
     16 C          -2.4560   -1.3440   -0.2710 C.3     1  UNL1        0.0483
     17 C          -1.3120   -0.5560    0.3710 C.3     1  UNL1        0.0882
     18 O          -1.4440   -0.6000    1.7930 O.3     1  UNL1       -0.3886
     19 C           0.0260   -1.1750   -0.0370 C.3     1  UNL1        0.0573
     20 N           1.1230   -0.3520    0.4790 N.am    1  UNL1       -0.2754
     21 C           2.3250   -0.3720   -0.1300 C.2     1  UNL1        0.4009
     22 O           2.4990   -1.0730   -1.1070 O.2     1  UNL1       -0.2265
     23 O           3.3320    0.3840    0.3450 O.3     1  UNL1       -0.4443
     24 C           4.5990    0.3130   -0.3610 C.3     1  UNL1        0.1354
     25 C           4.6670    1.3970   -1.4520 C.3     1  UNL1        0.0881
     26 O           5.7200    2.3020   -1.0920 O.3     1  UNL1       -0.3473
     27 C           6.6610    1.5840   -0.2710 C.3     1  UNL1        0.1656
     28 O           7.2510    2.4990    0.6630 O.3     1  UNL1       -0.3509
     29 C           6.4570    2.5820    1.8510 C.3     1  UNL1        0.0512
     30 C           5.2610    1.6220    1.6810 C.3     1  UNL1       -0.0184
     31 C           5.7660    0.6420    0.5930 C.3     1  UNL1        0.0515
     32 C           0.1320   -2.5880    0.5420 C.3     1  UNL1       -0.0066
     33 C           2.5710   -3.1120    0.7520 C.ar    1  UNL1       -0.0585
     34 C           3.7270   -3.7130    0.2920 C.ar    1  UNL1       -0.0615
     35 C           3.7060   -4.4440   -0.8810 C.ar    1  UNL1       -0.0617
     36 C           2.5290   -4.5760   -1.5930 C.ar    1  UNL1       -0.0615
     37 C           1.3720   -3.9740   -1.1320 C.ar    1  UNL1       -0.0585
     38 C           1.3930   -3.2430    0.0400 C.ar    1  UNL1       -0.0455
     39 H          -1.4370    6.0690   -0.0180 H       1  UNL1        0.1423
     40 H          -2.7530    6.3140    0.9980 H       1  UNL1        0.1423
     41 H          -1.1450    4.0390   -1.2990 H       1  UNL1        0.0636
     42 H          -2.0220    1.8170   -1.8900 H       1  UNL1        0.0638
     43 H          -5.3570    2.4340    0.6970 H       1  UNL1        0.0638
     44 H          -4.4840    4.6540    1.3030 H       1  UNL1        0.0636
     45 H          -3.7160   -1.1780    2.0590 H       1  UNL1        0.0446
     46 H          -5.0550   -0.1220    1.5470 H       1  UNL1        0.0446
     47 H          -5.9910   -2.0400    0.2170 H       1  UNL1        0.0308
     48 H          -3.9590   -3.3260   -0.1560 H       1  UNL1        0.0233
     49 H          -3.7080   -3.5200    1.5950 H       1  UNL1        0.0233
     50 H          -5.0810   -4.3270    0.7980 H       1  UNL1        0.0233
     51 H          -6.7930   -1.5590    2.5130 H       1  UNL1        0.0233
     52 H          -6.8060   -3.3090    2.1850 H       1  UNL1        0.0233
     53 H          -5.5110   -2.5990    3.1790 H       1  UNL1        0.0233
     54 H          -2.4710   -2.3560    0.1330 H       1  UNL1        0.0470
     55 H          -2.3070   -1.3860   -1.3500 H       1  UNL1        0.0470
     56 H          -1.3510    0.4800    0.0350 H       1  UNL1        0.0625
     57 H          -1.4180   -1.4930    2.1630 H       1  UNL1        0.2099
     58 H           0.0880   -1.2230   -1.1240 H       1  UNL1        0.0528
     59 H           0.9830    0.2070    1.2600 H       1  UNL1        0.1524
     60 H           4.7330   -0.6760   -0.8000 H       1  UNL1        0.0762
     61 H           4.8860    0.9390   -2.4160 H       1  UNL1        0.0598
     62 H           3.7190    1.9330   -1.5010 H       1  UNL1        0.0598
     63 H           7.4060    1.0490   -0.8590 H       1  UNL1        0.0913
     64 H           7.0510    2.2830    2.7140 H       1  UNL1        0.0561
     65 H           6.0960    3.6010    1.9850 H       1  UNL1        0.0561
     66 H           5.0540    1.0930    2.6120 H       1  UNL1        0.0293
     67 H           4.3780    2.1610    1.3370 H       1  UNL1        0.0293
     68 H           6.2820   -0.2380    0.9770 H       1  UNL1        0.0387
     69 H           0.1600   -2.5330    1.6300 H       1  UNL1        0.0332
     70 H          -0.7320   -3.1740    0.2290 H       1  UNL1        0.0332
     71 H           2.5860   -2.5440    1.6710 H       1  UNL1        0.0620
     72 H           4.6480   -3.6100    0.8480 H       1  UNL1        0.0618
     73 H           4.6100   -4.9130   -1.2410 H       1  UNL1        0.0618
     74 H           2.5130   -5.1460   -2.5090 H       1  UNL1        0.0618
     75 H           0.4520   -4.0770   -1.6890 H       1  UNL1        0.0620
@<TRIPOS>BOND
     1     1     2    1
     2     1    39    1
     3     1    40    1
     4     2     3   ar
     5     2     7   ar
     6     3     4   ar
     7     3    41    1
     8     4     5   ar
     9     4    42    1
    10     5     6   ar
    11     5     8    1
    12     6     7   ar
    13     6    43    1
    14     7    44    1
    15     8     9    2
    16     8    10    2
    17     8    11    1
    18    11    12    1
    19    11    16    1
    20    12    13    1
    21    12    45    1
    22    12    46    1
    23    13    14    1
    24    13    15    1
    25    13    47    1
    26    14    48    1
    27    14    49    1
    28    14    50    1
    29    15    51    1
    30    15    52    1
    31    15    53    1
    32    16    17    1
    33    16    54    1
    34    16    55    1
    35    17    18    1
    36    17    19    1
    37    17    56    1
    38    18    57    1
    39    19    20    1
    40    19    32    1
    41    19    58    1
    42    20    21   am
    43    20    59    1
    44    21    22    2
    45    21    23    1
    46    23    24    1
    47    24    25    1
    48    24    31    1
    49    24    60    1
    50    25    26    1
    51    25    61    1
    52    25    62    1
    53    26    27    1
    54    27    28    1
    55    27    31    1
    56    27    63    1
    57    28    29    1
    58    29    30    1
    59    29    64    1
    60    29    65    1
    61    30    31    1
    62    30    66    1
    63    30    67    1
    64    31    68    1
    65    32    38    1
    66    32    69    1
    67    32    70    1
    68    33    34   ar
    69    33    38   ar
    70    33    71    1
    71    34    35   ar
    72    34    72    1
    73    35    36   ar
    74    35    73    1
    75    36    37   ar
    76    36    74    1
    77    37    38   ar
    78    37    75    1
